********************************************************************************
* Library          : lab4
* Cell             : XNOR
* View             : schematic
* View Search List : auCdl schematic symbol
* View Stop List   : auCdl
********************************************************************************
.subckt XNOR a b output
*.PININFO a:I b:I output:O
XI0 a net16 b net14 output NMOS
XI5 b net14 CMOS_Working
XI4 a net16 CMOS_Working
.ends XNOR

