********************************************************************************
* Library          : Fourbit
* Cell             : fulladd
* View             : schematic
* View Search List : auCdl schematic symbol
* View Stop List   : auCdl
********************************************************************************
.subckt fulladd Ai Bi Ci Ci1 Si
*.PININFO Ai:I Bi:I Ci:I Ci1:O Si:O
XI1 net11 Si net7 Ci halfadd
XI0 net10 net7 Ai Bi halfadd
XI2 net10 net11 Ci1 OR
.ends fulladd

